Mod 13 Node OpenDSS/mycircuit_VLN_Node.Txt

LINE-GROUND and LINE-LINE VOLTAGES BY BUS & NODE

Bus  Node    VLN (kV)   Angle      pu     Base kV    Node-Node   VLL (kV)  Angle      pu

N1 . 1       7.1721 /_   -0.2   0.99618    12.470        1-2     12.422 /_   29.8   0.99616
   - 2       7.1715 /_ -120.2   0.99611    12.470        2-3     12.421 /_  -90.2   0.99607
   - 3       7.1714 /_  119.8   0.99608    12.470        3-1     12.422 /_  149.8   0.99614
N2 . 1       6.5383 /_   -3.3   0.90815    12.470        1-2     11.476 /_   26.9   0.92026
   - 2       6.6924 /_ -123.6   0.92955    12.470        2-3     11.561 /_  -94.0   0.92707
   - 3         6.63 /_  116.0   0.92089    12.470        3-1     11.364 /_  146.1   0.91131
